  Page 1                                    Mon Feb 15 10:48:36 2016

  ******************************************************************
  *                           E P A N E T                          *
  *                   Hydraulic and Water Quality                  *
  *                   Analysis for Pipe Networks                   *
  *                         Version 2.00.12                        *
  ******************************************************************
  
  Analysis begun Mon Feb 15 10:48:36 2016

   
  Link Results at 0:00:00 hrs:
  --------------------------
                   Headloss
  Link               /1000m
  --------------------------
  155                  0.00  Pump
   
   
  Link Results at 1:00:00 hrs:
  --------------------------
                   Headloss
  Link               /1000m
  --------------------------
  113                  0.00
  114                  0.00
  155                  0.00  Pump
   
   
  Link Results at 2:00:00 hrs:
  --------------------------
                   Headloss
  Link               /1000m
  --------------------------
  155                  0.00  Pump
   
   
  Link Results at 3:00:00 hrs:
  --------------------------
                   Headloss
  Link               /1000m
  --------------------------
  155                  0.00  Pump
   
   
  Link Results at 4:00:00 hrs:
  --------------------------
                   Headloss
  Link               /1000m
  --------------------------
  113                  0.00
  114                  0.00
  155                  0.00  Pump
   
   
  Link Results at 5:00:00 hrs:
  --------------------------
                   Headloss
  Link               /1000m
  --------------------------
  113                  0.00
  114                  0.00
  155                  0.00  Pump
  148                  0.00  FCV
   
   
  Link Results at 6:00:00 hrs:
  --------------------------
                   Headloss
  Link               /1000m
  --------------------------
  155                  0.00  Pump
   
   
  Link Results at 7:00:00 hrs:
  --------------------------
                   Headloss
  Link               /1000m
  --------------------------
  155                  0.00  Pump
  148                  0.00  FCV
   
   
  Link Results at 8:00:00 hrs:
  --------------------------
                   Headloss
  Link               /1000m
  --------------------------
  155                  0.00  Pump
   
   
  Link Results at 9:00:00 hrs:
  --------------------------
                   Headloss
  Link               /1000m
  --------------------------
  155                  0.00  Pump
   
   
  Link Results at 10:00:00 hrs:
  --------------------------
                   Headloss
  Link               /1000m
  --------------------------
  113                  0.00
  155                  0.00  Pump
   
   
  Link Results at 11:00:00 hrs:
  --------------------------
                   Headloss
  Link               /1000m
  --------------------------
  114                  0.00
  155                  0.00  Pump
  148                  0.00  FCV
   
   
  Link Results at 12:00:00 hrs:
  --------------------------
                   Headloss
  Link               /1000m
  --------------------------
  155                  0.00  Pump
   
   
  Link Results at 13:00:00 hrs:
  --------------------------
                   Headloss
  Link               /1000m
  --------------------------
  113                  0.00
  114                  0.00
  155                  0.00  Pump
   
   
  Link Results at 14:00:00 hrs:
  --------------------------
                   Headloss
  Link               /1000m
  --------------------------
  113                  0.00
  114                  0.00
  155                  0.00  Pump
   
   
  Link Results at 15:00:00 hrs:
  --------------------------
                   Headloss
  Link               /1000m
  --------------------------
  113                  0.00
  114                  0.00
  155                  0.00  Pump
   
   
  Link Results at 16:00:00 hrs:
  --------------------------
                   Headloss
  Link               /1000m
  --------------------------
  113                  0.00
  114                  0.00
  155                  0.00  Pump
   
   
  Link Results at 17:00:00 hrs:
  --------------------------
                   Headloss
  Link               /1000m
  --------------------------
  113                  0.00
  114                  0.00
  155                  0.00  Pump
  148                  0.00  FCV
   
   
  Link Results at 18:00:00 hrs:
  --------------------------
                   Headloss
  Link               /1000m
  --------------------------
  155                  0.00  Pump
   
   
  Link Results at 19:00:00 hrs:
  --------------------------
                   Headloss
  Link               /1000m
  --------------------------
  113                  0.00
  114                  0.00
  155                  0.00  Pump
   
   
  Link Results at 20:00:00 hrs:
  --------------------------
                   Headloss
  Link               /1000m
  --------------------------
  114                  0.00
  155                  0.00  Pump
   
   
  Link Results at 21:00:00 hrs:
  --------------------------
                   Headloss
  Link               /1000m
  --------------------------
  113                  0.00
  155                  0.00  Pump
   
   
  Link Results at 22:00:00 hrs:
  --------------------------
                   Headloss
  Link               /1000m
  --------------------------
  113                  0.00
  114                  0.00
  155                  0.00  Pump
   
   
  Link Results at 23:00:00 hrs:
  --------------------------
                   Headloss
  Link               /1000m
  --------------------------
  155                  0.00  Pump
   
   
  Link Results at 24:00:00 hrs:
  --------------------------
                   Headloss
  Link               /1000m
  --------------------------
  113                  0.00
  114                  0.00
  155                  0.00  Pump
   
  Analysis ended Mon Feb 15 10:48:36 2016
