  Page 1                                    Thu Jan 21 02:10:17 2016

  ******************************************************************
  *                           E P A N E T                          *
  *                   Hydraulic and Water Quality                  *
  *                   Analysis for Pipe Networks                   *
  *                         Version 2.00.12                        *
  ******************************************************************
  
  Analysis begun Thu Jan 21 02:10:17 2016

   
  Link Results at 0:00:00 hrs:
  --------------------------
                   Headloss
  Link               /1000m
  --------------------------
  13                   0.52
  14                   0.52
  39                   0.02
  40                   0.79
  41                   0.79
  42                   0.79
  49                   0.87
  63                   0.57
  64                   0.57
  67                   1.01
  68                   1.26
  75                   0.46
  77                  26.67
  80                   1.42
  82                   0.78
  83                   0.78
  94                   0.04
  96                   0.33
  97                   0.33
  98                   1.82
  99                   1.82
  50                   0.87
  74                   0.46
  156                  2.49
  101                  2.70
  100                  8.00
  95                   0.04
  155                  0.00  Pump
  117                  0.00  FCV
  118                  0.00  FCV
  119                  0.00  FCV
  122                  0.00  FCV
  125                  0.00  FCV
  128                  0.00  FCV
  133                  0.00  FCV
  135                  0.00  FCV
  143                  0.00  FCV
  145                  0.00  FCV
  146                  0.00  FCV
  147                  0.00  FCV
  127                  0.00  PRV
   
   
  Link Results at 1:00:00 hrs:
  --------------------------
                   Headloss
  Link               /1000m
  --------------------------
  13                   0.38
  14                   0.38
  39                   0.01
  40                   0.64
  41                   0.64
  42                   0.64
  49                   0.74
  63                   0.42
  64                   0.42
  67                   0.76
  68                   0.92
  75                   0.52
  77                  27.65
  80                   1.39
  82                   0.63
  83                   0.63
  96                   0.27
  97                   0.27
  98                   1.48
  99                   1.48
  50                   0.74
  74                   0.52
  156                  2.33
  101                  2.54
  100                  7.52
  155                  0.00  Pump
  117                  0.00  FCV
  118                  0.00  FCV
  119                  0.00  FCV
  122                  0.00  FCV
  123                  0.00  FCV
  125                  0.00  FCV
  128                  0.00  FCV
  133                  0.00  FCV
  135                  0.00  FCV
  143                  0.00  FCV
  145                  0.00  FCV
  146                  0.00  FCV
  147                  0.00  FCV
  127                  0.00  PRV
   
   
  Link Results at 2:00:00 hrs:
  --------------------------
                   Headloss
  Link               /1000m
  --------------------------
  13                   0.64
  14                   0.64
  39                   0.02
  40                   0.93
  41                   0.93
  42                   0.93
  49                   0.98
  63                   0.70
  64                   0.70
  67                   1.22
  68                   1.55
  75                   0.41
  77                  25.90
  80                   1.44
  82                   0.90
  83                   0.90
  94                   0.13
  96                   0.38
  97                   0.38
  98                   2.11
  99                   2.11
  50                   0.98
  74                   0.41
  156                  2.62
  101                  2.85
  100                  8.45
  95                   0.13
  155                  0.00  Pump
  117                  0.00  FCV
  118                  0.00  FCV
  119                  0.00  FCV
  122                  0.00  FCV
  125                  0.00  FCV
  128                  0.00  FCV
  133                  0.00  FCV
  135                  0.00  FCV
  143                  0.00  FCV
  145                  0.00  FCV
  146                  0.00  FCV
  147                  0.00  FCV
  127                  0.00  PRV
   
   
  Link Results at 3:00:00 hrs:
  --------------------------
                   Headloss
  Link               /1000m
  --------------------------
  13                   0.79
  14                   0.79
  39                   0.03
  40                   1.09
  41                   1.09
  42                   1.09
  49                   1.11
  63                   0.86
  64                   0.86
  67                   1.48
  68                   1.92
  75                   0.35
  77                  25.03
  80                   1.46
  82                   1.06
  83                   1.06
  94                   0.27
  96                   0.45
  97                   0.45
  98                   2.46
  99                   2.46
  50                   1.11
  74                   0.35
  156                  2.77
  101                  3.05
  100                  9.05
  95                   0.27
  155                  0.00  Pump
  117                  0.00  FCV
  118                  0.00  FCV
  119                  0.00  FCV
  122                  0.00  FCV
  125                  0.00  FCV
  128                  0.00  FCV
  133                  0.00  FCV
  135                  0.00  FCV
  143                  0.00  FCV
  145                  0.00  FCV
  146                  0.00  FCV
  147                  0.00  FCV
  127                  0.00  PRV
   
   
  Link Results at 4:00:00 hrs:
  --------------------------
                   Headloss
  Link               /1000m
  --------------------------
  13                   1.11
  14                   1.11
  39                   0.04
  40                   1.44
  41                   1.44
  42                   1.44
  49                   1.39
  58                   0.00
  63                   1.20
  64                   1.20
  67                   2.02
  68                   2.70
  75                   0.26
  77                  23.40
  80                   1.51
  82                   1.37
  83                   1.37
  94                   0.61
  96                   0.58
  97                   0.58
  98                   3.19
  99                   3.19
  50                   1.39
  74                   0.26
  156                  3.05
  101                  3.50
  100                 10.37
  59                   0.02
  60                   0.02
  95                   0.61
  155                  0.00  Pump
  117                  0.00  FCV
  118                  0.00  FCV
  119                  0.00  FCV
  122                  0.00  FCV
  125                  0.00  FCV
  128                  0.00  FCV
  133                  0.00  FCV
  135                  0.00  FCV
  143                  0.00  FCV
  145                  0.00  FCV
  146                  0.00  FCV
  147                  0.00  FCV
  127                  0.00  PRV
  138                  0.00  PRV
   
   
  Link Results at 5:00:00 hrs:
  --------------------------
                   Headloss
  Link               /1000m
  --------------------------
  13                   1.58
  14                   1.58
  39                   0.06
  40                   1.93
  41                   1.93
  42                   1.93
  49                   1.77
  58                   0.12
  63                   1.70
  64                   1.70
  67                   2.83
  68                   3.87
  75                   0.16
  77                  21.38
  80                   1.56
  82                   1.81
  83                   1.81
  94                   1.17
  96                   0.77
  97                   0.77
  98                   4.23
  99                   4.23
  50                   1.77
  74                   0.16
  156                  3.43
  101                  4.16
  100                 12.33
  59                   0.48
  60                   0.48
  95                   1.17
  155                  0.00  Pump
  117                  0.00  FCV
  118                  0.00  FCV
  119                  0.00  FCV
  122                  0.00  FCV
  125                  0.00  FCV
  128                  0.00  FCV
  133                  0.00  FCV
  135                  0.00  FCV
  143                  0.00  FCV
  145                  0.00  FCV
  146                  0.00  FCV
  147                  0.00  FCV
  148                  0.00  FCV
  127                  0.00  PRV
  138                  0.00  PRV
   
   
  Link Results at 6:00:00 hrs:
  --------------------------
                   Headloss
  Link               /1000m
  --------------------------
  13                   1.23
  14                   1.23
  39                   0.05
  40                   1.56
  41                   1.56
  42                   1.56
  49                   1.49
  58                   0.02
  63                   1.32
  64                   1.32
  67                   2.22
  68                   2.98
  75                   0.23
  77                  22.86
  80                   1.52
  82                   1.48
  83                   1.48
  94                   0.74
  96                   0.63
  97                   0.63
  98                   3.45
  99                   3.45
  50                   1.49
  74                   0.23
  156                  3.15
  101                  3.66
  100                 10.86
  59                   0.09
  60                   0.09
  95                   0.74
  155                  0.00  Pump
  117                  0.00  FCV
  118                  0.00  FCV
  119                  0.00  FCV
  122                  0.00  FCV
  125                  0.00  FCV
  128                  0.00  FCV
  133                  0.00  FCV
  135                  0.00  FCV
  143                  0.00  FCV
  145                  0.00  FCV
  146                  0.00  FCV
  147                  0.00  FCV
  127                  0.00  PRV
  138                  0.00  PRV
   
   
  Link Results at 7:00:00 hrs:
  --------------------------
                   Headloss
  Link               /1000m
  --------------------------
  13                   3.49
  14                   3.49
  39                   0.14
  40                   3.92
  41                   3.92
  42                   3.92
  49                   3.03
  58                   0.81
  61                   0.01
  62                   0.01
  63                   3.88
  64                   3.88
  67                   6.25
  68                   8.89
  75                   0.00
  77                  15.51
  80                   1.73
  82                   3.60
  83                   3.60
  94                   3.73
  96                   1.53
  97                   1.53
  98                   8.38
  99                   8.38
  50                   3.03
  74                   0.00
  156                  4.76
  101                  6.83
  100                 20.24
  59                   3.29
  60                   3.29
  95                   3.73
  155                  0.00  Pump
  117                  0.00  FCV
  118                  0.00  FCV
  119                  0.00  FCV
  122                  0.00  FCV
  125                  0.00  FCV
  128                  0.00  FCV
  133                  0.00  FCV
  135                  0.00  FCV
  143                  0.00  FCV
  145                  0.00  FCV
  147                  0.00  FCV
  127                  0.00  PRV
  138                  0.00  PRV
   
   
  Link Results at 8:00:00 hrs:
  --------------------------
                   Headloss
  Link               /1000m
  --------------------------
  13                   1.00
  14                   1.00
  39                   0.04
  40                   1.32
  41                   1.32
  42                   1.32
  49                   1.29
  63                   1.08
  64                   1.08
  67                   1.84
  68                   2.43
  75                   0.29
  77                  23.94
  80                   1.49
  82                   1.26
  83                   1.26
  94                   0.48
  96                   0.53
  97                   0.53
  98                   2.94
  99                   2.94
  50                   1.29
  74                   0.29
  156                  2.96
  101                  3.34
  100                  9.90
  95                   0.48
  155                  0.00  Pump
  117                  0.00  FCV
  118                  0.00  FCV
  119                  0.00  FCV
  122                  0.00  FCV
  125                  0.00  FCV
  128                  0.00  FCV
  133                  0.00  FCV
  135                  0.00  FCV
  143                  0.00  FCV
  145                  0.00  FCV
  146                  0.00  FCV
  147                  0.00  FCV
  127                  0.00  PRV
   
   
  Link Results at 9:00:00 hrs:
  --------------------------
                   Headloss
  Link               /1000m
  --------------------------
  13                   0.96
  14                   0.96
  39                   0.04
  40                   1.27
  41                   1.27
  42                   1.27
  49                   1.25
  63                   1.03
  64                   1.03
  67                   1.76
  68                   2.32
  75                   0.30
  77                  24.16
  80                   1.49
  82                   1.22
  83                   1.22
  94                   0.44
  96                   0.51
  97                   0.51
  98                   2.84
  99                   2.84
  50                   1.25
  74                   0.30
  156                  2.92
  101                  3.28
  100                  9.72
  95                   0.44
  155                  0.00  Pump
  117                  0.00  FCV
  118                  0.00  FCV
  119                  0.00  FCV
  122                  0.00  FCV
  125                  0.00  FCV
  128                  0.00  FCV
  133                  0.00  FCV
  135                  0.00  FCV
  143                  0.00  FCV
  145                  0.00  FCV
  146                  0.00  FCV
  147                  0.00  FCV
  127                  0.00  PRV
   
   
  Link Results at 10:00:00 hrs:
  --------------------------
                   Headloss
  Link               /1000m
  --------------------------
  13                   0.75
  14                   0.75
  39                   0.03
  40                   1.05
  41                   1.05
  42                   1.05
  49                   1.08
  63                   0.82
  64                   0.82
  67                   1.42
  68                   1.83
  75                   0.37
  77                  25.25
  80                   1.46
  82                   1.02
  83                   1.02
  94                   0.23
  96                   0.43
  97                   0.43
  98                   2.37
  99                   2.37
  50                   1.08
  74                   0.37
  156                  2.73
  101                  3.00
  100                  8.89
  95                   0.23
  155                  0.00  Pump
  117                  0.00  FCV
  118                  0.00  FCV
  119                  0.00  FCV
  122                  0.00  FCV
  125                  0.00  FCV
  128                  0.00  FCV
  133                  0.00  FCV
  135                  0.00  FCV
  143                  0.00  FCV
  145                  0.00  FCV
  146                  0.00  FCV
  147                  0.00  FCV
  127                  0.00  PRV
   
   
  Link Results at 11:00:00 hrs:
  --------------------------
                   Headloss
  Link               /1000m
  --------------------------
  13                   1.09
  14                   1.09
  39                   0.04
  40                   1.41
  41                   1.41
  42                   1.41
  49                   1.37
  58                   0.00
  63                   1.17
  64                   1.17
  67                   1.99
  68                   2.64
  75                   0.27
  77                  23.51
  80                   1.50
  82                   1.34
  83                   1.34
  94                   0.58
  96                   0.57
  97                   0.57
  98                   3.14
  99                   3.14
  50                   1.37
  74                   0.27
  156                  3.03
  101                  3.47
  100                 10.28
  59                   0.01
  60                   0.01
  95                   0.58
  155                  0.00  Pump
  117                  0.00  FCV
  118                  0.00  FCV
  119                  0.00  FCV
  122                  0.00  FCV
  125                  0.00  FCV
  128                  0.00  FCV
  133                  0.00  FCV
  135                  0.00  FCV
  143                  0.00  FCV
  145                  0.00  FCV
  146                  0.00  FCV
  147                  0.00  FCV
  148                  0.00  FCV
  127                  0.00  PRV
  138                  0.00  PRV
   
   
  Link Results at 12:00:00 hrs:
  --------------------------
                   Headloss
  Link               /1000m
  --------------------------
  13                   0.85
  14                   0.85
  39                   0.03
  40                   1.16
  41                   1.16
  42                   1.16
  49                   1.16
  63                   0.92
  64                   0.92
  67                   1.59
  68                   2.07
  75                   0.33
  77                  24.71
  80                   1.47
  82                   1.11
  83                   1.11
  94                   0.33
  96                   0.47
  97                   0.47
  98                   2.60
  99                   2.60
  50                   1.16
  74                   0.33
  156                  2.82
  101                  3.13
  100                  9.29
  95                   0.33
  155                  0.00  Pump
  117                  0.00  FCV
  118                  0.00  FCV
  119                  0.00  FCV
  122                  0.00  FCV
  125                  0.00  FCV
  128                  0.00  FCV
  133                  0.00  FCV
  135                  0.00  FCV
  143                  0.00  FCV
  145                  0.00  FCV
  146                  0.00  FCV
  147                  0.00  FCV
  127                  0.00  PRV
   
   
  Link Results at 13:00:00 hrs:
  --------------------------
                   Headloss
  Link               /1000m
  --------------------------
  13                   0.61
  14                   0.61
  39                   0.02
  40                   0.89
  41                   0.89
  42                   0.89
  49                   0.95
  63                   0.66
  64                   0.66
  67                   1.16
  68                   1.46
  75                   0.42
  77                  26.12
  80                   1.44
  82                   0.87
  83                   0.87
  94                   0.10
  96                   0.37
  97                   0.37
  98                   2.03
  99                   2.03
  50                   0.95
  74                   0.42
  156                  2.58
  101                  2.80
  100                  8.32
  95                   0.10
  155                  0.00  Pump
  117                  0.00  FCV
  118                  0.00  FCV
  119                  0.00  FCV
  122                  0.00  FCV
  125                  0.00  FCV
  128                  0.00  FCV
  133                  0.00  FCV
  135                  0.00  FCV
  143                  0.00  FCV
  145                  0.00  FCV
  146                  0.00  FCV
  147                  0.00  FCV
  127                  0.00  PRV
   
   
  Link Results at 14:00:00 hrs:
  --------------------------
                   Headloss
  Link               /1000m
  --------------------------
  13                   0.49
  14                   0.49
  39                   0.02
  40                   0.76
  41                   0.76
  42                   0.76
  49                   0.84
  63                   0.53
  64                   0.53
  67                   0.95
  68                   1.18
  75                   0.47
  77                  26.89
  80                   1.42
  82                   0.75
  83                   0.75
  94                   0.02
  96                   0.31
  97                   0.31
  98                   1.75
  99                   1.75
  50                   0.84
  74                   0.47
  156                  2.46
  101                  2.66
  100                  7.88
  95                   0.02
  155                  0.00  Pump
  117                  0.00  FCV
  118                  0.00  FCV
  119                  0.00  FCV
  122                  0.00  FCV
  125                  0.00  FCV
  128                  0.00  FCV
  133                  0.00  FCV
  135                  0.00  FCV
  143                  0.00  FCV
  145                  0.00  FCV
  146                  0.00  FCV
  147                  0.00  FCV
  127                  0.00  PRV
   
   
  Link Results at 15:00:00 hrs:
  --------------------------
                   Headloss
  Link               /1000m
  --------------------------
  13                   0.43
  14                   0.43
  39                   0.02
  40                   0.69
  41                   0.69
  42                   0.69
  49                   0.79
  63                   0.47
  64                   0.47
  67                   0.84
  68                   1.02
  75                   0.50
  77                  27.33
  80                   1.40
  82                   0.68
  83                   0.68
  94                   0.00
  96                   0.29
  97                   0.29
  98                   1.59
  99                   1.59
  50                   0.79
  74                   0.50
  156                  2.39
  101                  2.59
  100                  7.67
  95                   0.00
  155                  0.00  Pump
  117                  0.00  FCV
  118                  0.00  FCV
  119                  0.00  FCV
  122                  0.00  FCV
  125                  0.00  FCV
  128                  0.00  FCV
  133                  0.00  FCV
  135                  0.00  FCV
  143                  0.00  FCV
  145                  0.00  FCV
  146                  0.00  FCV
  147                  0.00  FCV
  127                  0.00  PRV
   
   
  Link Results at 16:00:00 hrs:
  --------------------------
                   Headloss
  Link               /1000m
  --------------------------
  13                   0.35
  14                   0.35
  39                   0.01
  40                   0.60
  41                   0.60
  42                   0.60
  49                   0.72
  63                   0.39
  64                   0.39
  67                   0.71
  68                   0.85
  75                   0.54
  77                  27.87
  80                   1.39
  82                   0.60
  83                   0.60
  96                   0.25
  97                   0.25
  98                   1.41
  99                   1.41
  50                   0.72
  74                   0.54
  156                  2.30
  101                  2.51
  100                  7.43
  155                  0.00  Pump
  117                  0.00  FCV
  118                  0.00  FCV
  119                  0.00  FCV
  122                  0.00  FCV
  123                  0.00  FCV
  125                  0.00  FCV
  128                  0.00  FCV
  133                  0.00  FCV
  135                  0.00  FCV
  143                  0.00  FCV
  145                  0.00  FCV
  146                  0.00  FCV
  147                  0.00  FCV
  127                  0.00  PRV
   
   
  Link Results at 17:00:00 hrs:
  --------------------------
                   Headloss
  Link               /1000m
  --------------------------
  13                   0.09
  14                   0.09
  39                   0.00
  40                   0.27
  41                   0.27
  42                   0.27
  43                   0.06
  44                   0.06
  49                   0.41
  63                   0.10
  64                   0.10
  67                   0.23
  68                   0.21
  69                   0.01
  70                   0.01
  75                   0.74
  77                  30.60
  80                   1.32
  82                   0.29
  83                   0.29
  96                   0.12
  97                   0.12
  98                   0.69
  99                   0.69
  102                  0.20
  103                  0.20
  50                   0.41
  74                   0.74
  156                  1.90
  101                  2.22
  100                  6.59
  155                  0.00  Pump
  117                  0.00  FCV
  118                  0.00  FCV
  119                  0.00  FCV
  122                  0.00  FCV
  123                  0.00  FCV
  125                  0.00  FCV
  128                  0.00  FCV
  133                  0.00  FCV
  135                  0.00  FCV
  136                  0.00  FCV
  143                  0.00  FCV
  146                  0.00  FCV
  147                  0.00  FCV
  148                  0.00  FCV
   
   
  Link Results at 18:00:00 hrs:
  --------------------------
                   Headloss
  Link               /1000m
  --------------------------
  13                   0.23
  14                   0.23
  39                   0.01
  40                   0.45
  41                   0.45
  42                   0.45
  43                   0.00
  44                   0.00
  49                   0.59
  63                   0.25
  64                   0.25
  67                   0.48
  68                   0.54
  75                   0.62
  77                  28.99
  80                   1.36
  82                   0.46
  83                   0.46
  96                   0.19
  97                   0.19
  98                   1.08
  99                   1.08
  50                   0.59
  74                   0.62
  156                  2.13
  101                  2.38
  100                  7.04
  155                  0.00  Pump
  117                  0.00  FCV
  118                  0.00  FCV
  119                  0.00  FCV
  122                  0.00  FCV
  123                  0.00  FCV
  125                  0.00  FCV
  128                  0.00  FCV
  133                  0.00  FCV
  135                  0.00  FCV
  136                  0.00  FCV
  143                  0.00  FCV
  145                  0.00  FCV
  146                  0.00  FCV
  147                  0.00  FCV
  127                  0.00  PRV
   
   
  Link Results at 19:00:00 hrs:
  --------------------------
                   Headloss
  Link               /1000m
  --------------------------
  13                   0.52
  14                   0.52
  39                   0.02
  40                   0.79
  41                   0.79
  42                   0.79
  49                   0.87
  63                   0.57
  64                   0.57
  67                   1.01
  68                   1.26
  75                   0.46
  77                  26.67
  80                   1.42
  82                   0.78
  83                   0.78
  94                   0.04
  96                   0.33
  97                   0.33
  98                   1.82
  99                   1.82
  50                   0.87
  74                   0.46
  156                  2.49
  101                  2.70
  100                  8.00
  95                   0.04
  155                  0.00  Pump
  117                  0.00  FCV
  118                  0.00  FCV
  119                  0.00  FCV
  122                  0.00  FCV
  125                  0.00  FCV
  128                  0.00  FCV
  133                  0.00  FCV
  135                  0.00  FCV
  143                  0.00  FCV
  145                  0.00  FCV
  146                  0.00  FCV
  147                  0.00  FCV
  127                  0.00  PRV
   
   
  Link Results at 20:00:00 hrs:
  --------------------------
                   Headloss
  Link               /1000m
  --------------------------
  13                   0.71
  14                   0.71
  39                   0.03
  40                   1.01
  41                   1.01
  42                   1.01
  49                   1.04
  63                   0.78
  64                   0.78
  67                   1.35
  68                   1.73
  75                   0.38
  77                  25.47
  80                   1.45
  82                   0.98
  83                   0.98
  94                   0.19
  96                   0.41
  97                   0.41
  98                   2.28
  99                   2.28
  50                   1.04
  74                   0.38
  156                  2.69
  101                  2.95
  100                  8.74
  95                   0.19
  155                  0.00  Pump
  117                  0.00  FCV
  118                  0.00  FCV
  119                  0.00  FCV
  122                  0.00  FCV
  125                  0.00  FCV
  128                  0.00  FCV
  133                  0.00  FCV
  135                  0.00  FCV
  143                  0.00  FCV
  145                  0.00  FCV
  146                  0.00  FCV
  147                  0.00  FCV
  127                  0.00  PRV
   
   
  Link Results at 21:00:00 hrs:
  --------------------------
                   Headloss
  Link               /1000m
  --------------------------
  13                   1.32
  14                   1.32
  39                   0.05
  40                   1.66
  41                   1.66
  42                   1.66
  49                   1.57
  58                   0.05
  63                   1.42
  64                   1.42
  67                   2.39
  68                   3.22
  75                   0.21
  77                  22.43
  80                   1.53
  82                   1.57
  83                   1.57
  94                   0.86
  96                   0.67
  97                   0.67
  98                   3.66
  99                   3.66
  50                   1.57
  74                   0.21
  156                  3.23
  101                  3.80
  100                 11.26
  59                   0.18
  60                   0.18
  95                   0.86
  155                  0.00  Pump
  117                  0.00  FCV
  118                  0.00  FCV
  119                  0.00  FCV
  122                  0.00  FCV
  125                  0.00  FCV
  128                  0.00  FCV
  133                  0.00  FCV
  135                  0.00  FCV
  143                  0.00  FCV
  145                  0.00  FCV
  146                  0.00  FCV
  147                  0.00  FCV
  127                  0.00  PRV
  138                  0.00  PRV
   
   
  Link Results at 22:00:00 hrs:
  --------------------------
                   Headloss
  Link               /1000m
  --------------------------
  13                   0.26
  14                   0.26
  39                   0.01
  40                   0.49
  41                   0.49
  42                   0.49
  43                   0.00
  44                   0.00
  49                   0.63
  63                   0.29
  64                   0.29
  67                   0.55
  68                   0.62
  75                   0.59
  77                  28.65
  80                   1.37
  82                   0.50
  83                   0.50
  96                   0.21
  97                   0.21
  98                   1.18
  99                   1.18
  50                   0.63
  74                   0.59
  156                  2.18
  101                  2.41
  100                  7.15
  155                  0.00  Pump
  117                  0.00  FCV
  118                  0.00  FCV
  119                  0.00  FCV
  122                  0.00  FCV
  123                  0.00  FCV
  125                  0.00  FCV
  128                  0.00  FCV
  133                  0.00  FCV
  135                  0.00  FCV
  136                  0.00  FCV
  143                  0.00  FCV
  145                  0.00  FCV
  146                  0.00  FCV
  147                  0.00  FCV
  127                  0.00  PRV
   
   
  Link Results at 23:00:00 hrs:
  --------------------------
                   Headloss
  Link               /1000m
  --------------------------
  13                   0.96
  14                   0.96
  39                   0.04
  40                   1.27
  41                   1.27
  42                   1.27
  49                   1.25
  63                   1.03
  64                   1.03
  67                   1.76
  68                   2.32
  75                   0.30
  77                  24.16
  80                   1.49
  82                   1.22
  83                   1.22
  94                   0.44
  96                   0.51
  97                   0.51
  98                   2.84
  99                   2.84
  50                   1.25
  74                   0.30
  156                  2.92
  101                  3.28
  100                  9.72
  95                   0.44
  155                  0.00  Pump
  117                  0.00  FCV
  118                  0.00  FCV
  119                  0.00  FCV
  122                  0.00  FCV
  125                  0.00  FCV
  128                  0.00  FCV
  133                  0.00  FCV
  135                  0.00  FCV
  143                  0.00  FCV
  145                  0.00  FCV
  146                  0.00  FCV
  147                  0.00  FCV
  127                  0.00  PRV
   
   
  Link Results at 24:00:00 hrs:
  --------------------------
                   Headloss
  Link               /1000m
  --------------------------
  13                   0.52
  14                   0.52
  39                   0.02
  40                   0.79
  41                   0.79
  42                   0.79
  49                   0.87
  63                   0.57
  64                   0.57
  67                   1.01
  68                   1.26
  75                   0.46
  77                  26.67
  80                   1.42
  82                   0.78
  83                   0.78
  94                   0.04
  96                   0.33
  97                   0.33
  98                   1.82
  99                   1.82
  50                   0.87
  74                   0.46
  156                  2.49
  101                  2.70
  100                  8.00
  95                   0.04
  155                  0.00  Pump
  117                  0.00  FCV
  118                  0.00  FCV
  119                  0.00  FCV
  122                  0.00  FCV
  125                  0.00  FCV
  128                  0.00  FCV
  133                  0.00  FCV
  135                  0.00  FCV
  143                  0.00  FCV
  145                  0.00  FCV
  146                  0.00  FCV
  147                  0.00  FCV
  127                  0.00  PRV
   
  Analysis ended Thu Jan 21 02:10:17 2016
